<?xml version="1.0" encoding="UTF-8"?>

<!-- generated on Wed Jul 22 17:42:44 2020 by Eclipse SUMO netconvert Version 1.6.0
<configuration xmlns:xsi="http://www.w3.org/2001/XMLSchema-instance" xsi:noNamespaceSchemaLocation="http://sumo.dlr.de/xsd/netconvertConfiguration.xsd">

    <input>
        <node-files value="nodes.nod.xml"/>
        <edge-files value="edges.edg.xml"/>
    </input>

    <output>
        <output-file value="net.net.xml"/>
    </output>

    <report>
        <verbose value="true"/>
        <aggregate-warnings value="5"/>
        <log value="turnspeed.txt"/>
    </report>

</configuration>
-->

<net version="1.6" junctionCornerDetail="5" limitTurnSpeed="5.50" xmlns:xsi="http://www.w3.org/2001/XMLSchema-instance" xsi:noNamespaceSchemaLocation="http://sumo.dlr.de/xsd/net_file.xsd">

    <location netOffset="1000.00,1000.00" convBoundary="0.00,0.00,2000.00,2000.00" origBoundary="-1000.00,-1000.00,1000.00,1000.00" projParameter="!"/>

    <edge id=":c_0" function="internal">
        <lane id=":c_0_0" index="0" speed="6.51" length="9.03" shape="998.40,1007.20 998.05,1004.75 997.00,1003.00 995.25,1001.95 992.80,1001.60"/>
    </edge>
    <edge id=":c_1" function="internal">
        <lane id=":c_1_0" index="0" speed="100.00" length="14.40" shape="998.40,1007.20 998.40,992.80"/>
    </edge>
    <edge id=":c_2" function="internal">
        <lane id=":c_2_0" index="0" speed="7.80" length="13.44" shape="998.40,1007.20 999.19,1004.07 1001.24,1001.24 1004.07,999.19 1007.20,998.40"/>
    </edge>
    <edge id=":c_3" function="internal">
        <lane id=":c_3_0" index="0" speed="3.65" length="4.67" shape="998.40,1007.20 999.20,1006.00 1000.00,1005.60 1000.80,1006.00 1001.60,1007.20"/>
    </edge>
    <edge id=":c_4" function="internal">
        <lane id=":c_4_0" index="0" speed="6.51" length="9.03" shape="1007.20,1001.60 1004.75,1001.95 1003.00,1003.00 1001.95,1004.75 1001.60,1007.20"/>
    </edge>
    <edge id=":c_5" function="internal">
        <lane id=":c_5_0" index="0" speed="100.00" length="14.40" shape="1007.20,1001.60 992.80,1001.60"/>
    </edge>
    <edge id=":c_6" function="internal">
        <lane id=":c_6_0" index="0" speed="7.80" length="13.44" shape="1007.20,1001.60 1004.07,1000.81 1001.24,998.76 999.19,995.93 998.40,992.80"/>
    </edge>
    <edge id=":c_7" function="internal">
        <lane id=":c_7_0" index="0" speed="3.65" length="4.67" shape="1007.20,1001.60 1006.00,1000.80 1005.60,1000.00 1006.00,999.20 1007.20,998.40"/>
    </edge>
    <edge id=":c_8" function="internal">
        <lane id=":c_8_0" index="0" speed="6.51" length="9.03" shape="1001.60,992.80 1001.95,995.25 1003.00,997.00 1004.75,998.05 1007.20,998.40"/>
    </edge>
    <edge id=":c_9" function="internal">
        <lane id=":c_9_0" index="0" speed="100.00" length="14.40" shape="1001.60,992.80 1001.60,1007.20"/>
    </edge>
    <edge id=":c_10" function="internal">
        <lane id=":c_10_0" index="0" speed="7.80" length="13.44" shape="1001.60,992.80 1000.81,995.93 998.76,998.76 995.93,1000.81 992.80,1001.60"/>
    </edge>
    <edge id=":c_11" function="internal">
        <lane id=":c_11_0" index="0" speed="3.65" length="4.67" shape="1001.60,992.80 1000.80,994.00 1000.00,994.40 999.20,994.00 998.40,992.80"/>
    </edge>
    <edge id=":c_12" function="internal">
        <lane id=":c_12_0" index="0" speed="6.51" length="9.03" shape="992.80,998.40 995.25,998.05 997.00,997.00 998.05,995.25 998.40,992.80"/>
    </edge>
    <edge id=":c_13" function="internal">
        <lane id=":c_13_0" index="0" speed="100.00" length="14.40" shape="992.80,998.40 1007.20,998.40"/>
    </edge>
    <edge id=":c_14" function="internal">
        <lane id=":c_14_0" index="0" speed="7.80" length="13.44" shape="992.80,998.40 995.93,999.19 998.76,1001.24 1000.81,1004.07 1001.60,1007.20"/>
    </edge>
    <edge id=":c_15" function="internal">
        <lane id=":c_15_0" index="0" speed="3.65" length="4.67" shape="992.80,998.40 994.00,999.20 994.40,1000.00 994.00,1000.80 992.80,1001.60"/>
    </edge>
    <edge id=":e_0" function="internal">
        <lane id=":e_0_0" index="0" speed="3.65" length="4.67" shape="2000.00,998.40 2001.20,999.20 2001.60,1000.00 2001.20,1000.80 2000.00,1001.60"/>
    </edge>
    <edge id=":n_0" function="internal">
        <lane id=":n_0_0" index="0" speed="3.65" length="4.67" shape="1001.60,2000.00 1000.80,2001.20 1000.00,2001.60 999.20,2001.20 998.40,2000.00"/>
    </edge>
    <edge id=":s_0" function="internal">
        <lane id=":s_0_0" index="0" speed="3.65" length="4.67" shape="998.40,0.00 999.20,-1.20 1000.00,-1.60 1000.80,-1.20 1001.60,0.00"/>
    </edge>
    <edge id=":w_0" function="internal">
        <lane id=":w_0_0" index="0" speed="3.65" length="4.67" shape="0.00,1001.60 -1.20,1000.80 -1.60,1000.00 -1.20,999.20 0.00,998.40"/>
    </edge>

    <edge id="ce" from="c" to="e" priority="1">
        <lane id="ce_0" index="0" speed="100.00" length="992.80" shape="1007.20,998.40 2000.00,998.40"/>
    </edge>
    <edge id="cn" from="c" to="n" priority="1">
        <lane id="cn_0" index="0" speed="100.00" length="992.80" shape="1001.60,1007.20 1001.60,2000.00"/>
    </edge>
    <edge id="cs" from="c" to="s" priority="1">
        <lane id="cs_0" index="0" speed="100.00" length="992.80" shape="998.40,992.80 998.40,0.00"/>
    </edge>
    <edge id="cw" from="c" to="w" priority="1">
        <lane id="cw_0" index="0" speed="100.00" length="992.80" shape="992.80,1001.60 0.00,1001.60"/>
    </edge>
    <edge id="ec" from="e" to="c" priority="1">
        <lane id="ec_0" index="0" speed="100.00" length="992.80" shape="2000.00,1001.60 1007.20,1001.60"/>
    </edge>
    <edge id="nc" from="n" to="c" priority="1">
        <lane id="nc_0" index="0" speed="100.00" length="992.80" shape="998.40,2000.00 998.40,1007.20"/>
    </edge>
    <edge id="sc" from="s" to="c" priority="1">
        <lane id="sc_0" index="0" speed="100.00" length="992.80" shape="1001.60,0.00 1001.60,992.80"/>
    </edge>
    <edge id="wc" from="w" to="c" priority="1">
        <lane id="wc_0" index="0" speed="100.00" length="992.80" shape="0.00,998.40 992.80,998.40"/>
    </edge>

    <junction id="c" type="unregulated" x="1000.00" y="1000.00" incLanes="nc_0 ec_0 sc_0 wc_0" intLanes=":c_0_0 :c_1_0 :c_2_0 :c_3_0 :c_4_0 :c_5_0 :c_6_0 :c_7_0 :c_8_0 :c_9_0 :c_10_0 :c_11_0 :c_12_0 :c_13_0 :c_14_0 :c_15_0" shape="996.80,1007.20 1003.20,1007.20 1003.64,1004.98 1004.20,1004.20 1004.98,1003.64 1005.98,1003.31 1007.20,1003.20 1007.20,996.80 1004.98,996.36 1004.20,995.80 1003.64,995.02 1003.31,994.02 1003.20,992.80 996.80,992.80 996.36,995.02 995.80,995.80 995.02,996.36 994.02,996.69 992.80,996.80 992.80,1003.20 995.02,1003.64 995.80,1004.20 996.36,1004.98 996.69,1005.98"/>
    <junction id="e" type="unregulated" x="2000.00" y="1000.00" incLanes="ce_0" intLanes=":e_0_0" shape="2000.00,1000.00 2000.00,996.80 2000.00,1000.00"/>
    <junction id="n" type="unregulated" x="1000.00" y="2000.00" incLanes="cn_0" intLanes=":n_0_0" shape="1000.00,2000.00 1003.20,2000.00 1000.00,2000.00"/>
    <junction id="s" type="unregulated" x="1000.00" y="0.00" incLanes="cs_0" intLanes=":s_0_0" shape="1000.00,0.00 996.80,0.00 1000.00,0.00"/>
    <junction id="w" type="unregulated" x="0.00" y="1000.00" incLanes="cw_0" intLanes=":w_0_0" shape="0.00,1000.00 0.00,1003.20 0.00,1000.00"/>

    <connection from="ce" to="ec" fromLane="0" toLane="0" via=":e_0_0" dir="t" state="M"/>
    <connection from="cn" to="nc" fromLane="0" toLane="0" via=":n_0_0" dir="t" state="M"/>
    <connection from="cs" to="sc" fromLane="0" toLane="0" via=":s_0_0" dir="t" state="M"/>
    <connection from="cw" to="wc" fromLane="0" toLane="0" via=":w_0_0" dir="t" state="M"/>
    <connection from="ec" to="cn" fromLane="0" toLane="0" via=":c_4_0" dir="r" state="M"/>
    <connection from="ec" to="cw" fromLane="0" toLane="0" via=":c_5_0" dir="s" state="M"/>
    <connection from="ec" to="cs" fromLane="0" toLane="0" via=":c_6_0" dir="l" state="M"/>
    <connection from="ec" to="ce" fromLane="0" toLane="0" via=":c_7_0" dir="t" state="M"/>
    <connection from="nc" to="cw" fromLane="0" toLane="0" via=":c_0_0" dir="r" state="M"/>
    <connection from="nc" to="cs" fromLane="0" toLane="0" via=":c_1_0" dir="s" state="M"/>
    <connection from="nc" to="ce" fromLane="0" toLane="0" via=":c_2_0" dir="l" state="M"/>
    <connection from="nc" to="cn" fromLane="0" toLane="0" via=":c_3_0" dir="t" state="M"/>
    <connection from="sc" to="ce" fromLane="0" toLane="0" via=":c_8_0" dir="r" state="M"/>
    <connection from="sc" to="cn" fromLane="0" toLane="0" via=":c_9_0" dir="s" state="M"/>
    <connection from="sc" to="cw" fromLane="0" toLane="0" via=":c_10_0" dir="l" state="M"/>
    <connection from="sc" to="cs" fromLane="0" toLane="0" via=":c_11_0" dir="t" state="M"/>
    <connection from="wc" to="cs" fromLane="0" toLane="0" via=":c_12_0" dir="r" state="M"/>
    <connection from="wc" to="ce" fromLane="0" toLane="0" via=":c_13_0" dir="s" state="M"/>
    <connection from="wc" to="cn" fromLane="0" toLane="0" via=":c_14_0" dir="l" state="M"/>
    <connection from="wc" to="cw" fromLane="0" toLane="0" via=":c_15_0" dir="t" state="M"/>

    <connection from=":c_0" to="cw" fromLane="0" toLane="0" dir="r" state="M"/>
    <connection from=":c_1" to="cs" fromLane="0" toLane="0" dir="s" state="M"/>
    <connection from=":c_2" to="ce" fromLane="0" toLane="0" dir="l" state="M"/>
    <connection from=":c_3" to="cn" fromLane="0" toLane="0" dir="t" state="M"/>
    <connection from=":c_4" to="cn" fromLane="0" toLane="0" dir="r" state="M"/>
    <connection from=":c_5" to="cw" fromLane="0" toLane="0" dir="s" state="M"/>
    <connection from=":c_6" to="cs" fromLane="0" toLane="0" dir="l" state="M"/>
    <connection from=":c_7" to="ce" fromLane="0" toLane="0" dir="t" state="M"/>
    <connection from=":c_8" to="ce" fromLane="0" toLane="0" dir="r" state="M"/>
    <connection from=":c_9" to="cn" fromLane="0" toLane="0" dir="s" state="M"/>
    <connection from=":c_10" to="cw" fromLane="0" toLane="0" dir="l" state="M"/>
    <connection from=":c_11" to="cs" fromLane="0" toLane="0" dir="t" state="M"/>
    <connection from=":c_12" to="cs" fromLane="0" toLane="0" dir="r" state="M"/>
    <connection from=":c_13" to="ce" fromLane="0" toLane="0" dir="s" state="M"/>
    <connection from=":c_14" to="cn" fromLane="0" toLane="0" dir="l" state="M"/>
    <connection from=":c_15" to="cw" fromLane="0" toLane="0" dir="t" state="M"/>
    <connection from=":e_0" to="ec" fromLane="0" toLane="0" dir="t" state="M"/>
    <connection from=":n_0" to="nc" fromLane="0" toLane="0" dir="t" state="M"/>
    <connection from=":s_0" to="sc" fromLane="0" toLane="0" dir="t" state="M"/>
    <connection from=":w_0" to="wc" fromLane="0" toLane="0" dir="t" state="M"/>

</net>
