<nodes> <!-- The opening tag -->


  <node id="c" x="0.0" y="0.0" type="unregulated"/> <!-- def. of node "1" --> <!-- type="priority" -->
  <node id="n" x="0" y="1000" type="unregulated"/> <!-- def. of node "2" -->
  <node id="s" x="0.0" y="-1000" type="unregulated"/> <!-- def. of node "3" -->
  <node id="e" x="1000" y="0" type="unregulated"/> <!-- def. of node "4" -->
  <node id="w" x="-1000" y="0.0" type="unregulated"/> <!-- def. of node "m1" -->

</nodes> <!-- The closing tag -->