<routes>
        <vType id="typeCar" accel="0.800000" decel="4.500000" sigma="0.0" length="5" minGap="2.5" speedDev="0" maxSpeed="10.000000" guiShape="passenger"/>


        <route id="WE" edges="wc ce" />
        <route id="WN" edges="wc cn" />
        <route id="WS" edges="wc cs" />

        <route id="EW" edges="ec cw" />
        <route id="EN" edges="ec cn" />
        <route id="ES" edges="ec cs" />

        <route id="NS" edges="nc cs" />
        <route id="NE" edges="nc ce" />
        <route id="NW" edges="nc cw" />

        <route id="SN" edges="sc cn" />
        <route id="SE" edges="sc ce" />
        <route id="SW" edges="sc cw" />

        
    <vehicle id="WE_0" type="typeCar" route="WE" depart="0" departSpeed="10.000000"/>
    <vehicle id="EW_1" type="typeCar" route="EW" depart="2" departSpeed="10.000000"/>
    <vehicle id="NE_2" type="typeCar" route="NE" depart="4" color="1,0,0" departSpeed="10.000000"/>
    <vehicle id="SN_3" type="typeCar" route="SN" depart="6" color="1,0,0" departSpeed="10.000000"/>
    <vehicle id="WN_4" type="typeCar" route="WN" depart="8" departSpeed="10.000000"/>
    <vehicle id="EN_5" type="typeCar" route="EN" depart="10" departSpeed="10.000000"/>
    <vehicle id="NW_6" type="typeCar" route="NW" depart="12" color="1,0,0" departSpeed="10.000000"/>
    <vehicle id="SW_7" type="typeCar" route="SW" depart="14" color="1,0,0" departSpeed="10.000000"/>
    <vehicle id="WS_8" type="typeCar" route="WS" depart="16" departSpeed="10.000000"/>
    <vehicle id="ES_9" type="typeCar" route="ES" depart="18" departSpeed="10.000000"/>
    <vehicle id="NS_10" type="typeCar" route="NS" depart="20" color="1,0,0" departSpeed="10.000000"/>
    <vehicle id="SE_11" type="typeCar" route="SE" depart="22" color="1,0,0" departSpeed="10.000000"/>
    <vehicle id="WE_12" type="typeCar" route="WE" depart="24" departSpeed="10.000000"/>
    <vehicle id="EW_13" type="typeCar" route="EW" depart="26" departSpeed="10.000000"/>
    <vehicle id="NE_14" type="typeCar" route="NE" depart="28" color="1,0,0" departSpeed="10.000000"/>
    <vehicle id="SN_15" type="typeCar" route="SN" depart="30" color="1,0,0" departSpeed="10.000000"/>
    <vehicle id="WN_16" type="typeCar" route="WN" depart="32" departSpeed="10.000000"/>
    <vehicle id="EN_17" type="typeCar" route="EN" depart="34" departSpeed="10.000000"/>
    <vehicle id="NW_18" type="typeCar" route="NW" depart="36" color="1,0,0" departSpeed="10.000000"/>
    <vehicle id="SW_19" type="typeCar" route="SW" depart="38" color="1,0,0" departSpeed="10.000000"/>
    <vehicle id="WS_20" type="typeCar" route="WS" depart="40" departSpeed="10.000000"/>
    <vehicle id="ES_21" type="typeCar" route="ES" depart="42" departSpeed="10.000000"/>
    <vehicle id="NS_22" type="typeCar" route="NS" depart="44" color="1,0,0" departSpeed="10.000000"/>
    <vehicle id="SE_23" type="typeCar" route="SE" depart="46" color="1,0,0" departSpeed="10.000000"/>
    <vehicle id="WE_24" type="typeCar" route="WE" depart="48" departSpeed="10.000000"/>
    <vehicle id="EW_25" type="typeCar" route="EW" depart="50" departSpeed="10.000000"/>
    <vehicle id="NE_26" type="typeCar" route="NE" depart="52" color="1,0,0" departSpeed="10.000000"/>
    <vehicle id="SN_27" type="typeCar" route="SN" depart="54" color="1,0,0" departSpeed="10.000000"/>
    <vehicle id="WN_28" type="typeCar" route="WN" depart="56" departSpeed="10.000000"/>
    <vehicle id="EN_29" type="typeCar" route="EN" depart="58" departSpeed="10.000000"/>
    <vehicle id="NW_30" type="typeCar" route="NW" depart="60" color="1,0,0" departSpeed="10.000000"/>
    <vehicle id="SW_31" type="typeCar" route="SW" depart="62" color="1,0,0" departSpeed="10.000000"/>
    <vehicle id="WS_32" type="typeCar" route="WS" depart="64" departSpeed="10.000000"/>
    <vehicle id="ES_33" type="typeCar" route="ES" depart="66" departSpeed="10.000000"/>
    <vehicle id="NS_34" type="typeCar" route="NS" depart="68" color="1,0,0" departSpeed="10.000000"/>
    <vehicle id="SE_35" type="typeCar" route="SE" depart="70" color="1,0,0" departSpeed="10.000000"/>
    <vehicle id="WE_36" type="typeCar" route="WE" depart="72" departSpeed="10.000000"/>
    <vehicle id="EW_37" type="typeCar" route="EW" depart="74" departSpeed="10.000000"/>
    <vehicle id="NE_38" type="typeCar" route="NE" depart="76" color="1,0,0" departSpeed="10.000000"/>
    <vehicle id="SN_39" type="typeCar" route="SN" depart="78" color="1,0,0" departSpeed="10.000000"/>
    <vehicle id="WN_40" type="typeCar" route="WN" depart="80" departSpeed="10.000000"/>
    <vehicle id="EN_41" type="typeCar" route="EN" depart="82" departSpeed="10.000000"/>
    <vehicle id="NW_42" type="typeCar" route="NW" depart="84" color="1,0,0" departSpeed="10.000000"/>
    <vehicle id="SW_43" type="typeCar" route="SW" depart="86" color="1,0,0" departSpeed="10.000000"/>
    <vehicle id="WS_44" type="typeCar" route="WS" depart="88" departSpeed="10.000000"/>
    <vehicle id="ES_45" type="typeCar" route="ES" depart="90" departSpeed="10.000000"/>
    <vehicle id="NS_46" type="typeCar" route="NS" depart="92" color="1,0,0" departSpeed="10.000000"/>
    <vehicle id="SE_47" type="typeCar" route="SE" depart="94" color="1,0,0" departSpeed="10.000000"/>
    <vehicle id="WE_48" type="typeCar" route="WE" depart="96" departSpeed="10.000000"/>
    <vehicle id="EW_49" type="typeCar" route="EW" depart="98" departSpeed="10.000000"/>
</routes>
