<routes>
        <vType id="typeCar" accel="0.800000" decel="4.500000" sigma="0.0" length="5" minGap="2.5" speedDev="0" maxSpeed="10.000000" guiShape="passenger"/>


        <route id="WE" edges="wc ce" />
        <route id="WN" edges="wc cn" />
        <route id="WS" edges="wc cs" />

        <route id="EW" edges="ec cw" />
        <route id="EN" edges="ec cn" />
        <route id="ES" edges="ec cs" />

        <route id="NS" edges="nc cs" />
        <route id="NE" edges="nc ce" />
        <route id="NW" edges="nc cw" />

        <route id="SN" edges="sc cn" />
        <route id="SE" edges="sc ce" />
        <route id="SW" edges="sc cw" />

        
    <vehicle id="A0" type="typeCar" route="SN" depart="0.000000" departSpeed="10.000000" color="1,0,0"/>
    <vehicle id="A1" type="typeCar" route="SE" depart="2.534798" departSpeed="10.000000" color="1,0,0"/>
    <vehicle id="A2" type="typeCar" route="NE" depart="5.063924" departSpeed="10.000000" color="1,0,0"/>
    <vehicle id="A3" type="typeCar" route="EN" depart="7.616479" departSpeed="10.000000"/>
    <vehicle id="A4" type="typeCar" route="SN" depart="10.023276" departSpeed="10.000000" color="1,0,0"/>
    <vehicle id="A5" type="typeCar" route="NS" depart="13.018273" departSpeed="10.000000" color="1,0,0"/>
    <vehicle id="A6" type="typeCar" route="ES" depart="15.711341" departSpeed="10.000000"/>
    <vehicle id="A7" type="typeCar" route="ES" depart="17.587360" departSpeed="10.000000"/>
    <vehicle id="A8" type="typeCar" route="EW" depart="19.884110" departSpeed="10.000000"/>
    <vehicle id="A9" type="typeCar" route="SN" depart="22.327348" departSpeed="10.000000" color="1,0,0"/>
    <vehicle id="B10" type="typeCar" route="NS" depart="24.931272" departSpeed="10.000000" color="1,0,0"/>
    <vehicle id="B11" type="typeCar" route="WN" depart="26.857322" departSpeed="10.000000"/>
    <vehicle id="B12" type="typeCar" route="WN" depart="28.835264" departSpeed="10.000000"/>
    <vehicle id="B13" type="typeCar" route="NS" depart="30.733353" departSpeed="10.000000" color="1,0,0"/>
    <vehicle id="B14" type="typeCar" route="WE" depart="33.709245" departSpeed="10.000000"/>
    <vehicle id="B15" type="typeCar" route="WS" depart="36.539273" departSpeed="10.000000"/>
    <vehicle id="B16" type="typeCar" route="NS" depart="38.658481" departSpeed="10.000000" color="1,0,0"/>
    <vehicle id="B17" type="typeCar" route="WE" depart="40.787246" departSpeed="10.000000"/>
    <vehicle id="B18" type="typeCar" route="EN" depart="43.166635" departSpeed="10.000000"/>
    <vehicle id="B19" type="typeCar" route="NW" depart="45.501760" departSpeed="10.000000" color="1,0,0"/>
    <vehicle id="C20" type="typeCar" route="SN" depart="47.967268" departSpeed="10.000000" color="1,0,0"/>
    <vehicle id="C21" type="typeCar" route="EN" depart="50.801539" departSpeed="10.000000"/>
    <vehicle id="C22" type="typeCar" route="ES" depart="52.471226" departSpeed="10.000000"/>
    <vehicle id="C23" type="typeCar" route="EN" depart="54.085581" departSpeed="10.000000"/>
    <vehicle id="C24" type="typeCar" route="ES" depart="55.679661" departSpeed="10.000000"/>
    <vehicle id="C25" type="typeCar" route="ES" depart="58.392770" departSpeed="10.000000"/>
    <vehicle id="C26" type="typeCar" route="WS" depart="59.969643" departSpeed="10.000000"/>
    <vehicle id="C27" type="typeCar" route="NS" depart="62.923262" departSpeed="10.000000" color="1,0,0"/>
    <vehicle id="C28" type="typeCar" route="ES" depart="64.878018" departSpeed="10.000000"/>
    <vehicle id="C29" type="typeCar" route="WS" depart="67.759914" departSpeed="10.000000"/>
    <vehicle id="D30" type="typeCar" route="ES" depart="69.958708" departSpeed="10.000000"/>
    <vehicle id="D31" type="typeCar" route="SE" depart="72.710401" departSpeed="10.000000" color="1,0,0"/>
    <vehicle id="D32" type="typeCar" route="SN" depart="74.275578" departSpeed="10.000000" color="1,0,0"/>
    <vehicle id="D33" type="typeCar" route="SW" depart="76.917698" departSpeed="10.000000" color="1,0,0"/>
    <vehicle id="D34" type="typeCar" route="WN" depart="78.819017" departSpeed="10.000000"/>
    <vehicle id="D35" type="typeCar" route="WE" depart="80.767678" departSpeed="10.000000"/>
    <vehicle id="D36" type="typeCar" route="NS" depart="83.478487" departSpeed="10.000000" color="1,0,0"/>
    <vehicle id="D37" type="typeCar" route="WE" depart="85.642184" departSpeed="10.000000"/>
    <vehicle id="D38" type="typeCar" route="SE" depart="87.590431" departSpeed="10.000000" color="1,0,0"/>
    <vehicle id="D39" type="typeCar" route="SW" depart="90.539594" departSpeed="10.000000" color="1,0,0"/>
    <vehicle id="E40" type="typeCar" route="ES" depart="93.401912" departSpeed="10.000000"/>
    <vehicle id="E41" type="typeCar" route="NW" depart="95.191444" departSpeed="10.000000" color="1,0,0"/>
    <vehicle id="E42" type="typeCar" route="SW" depart="98.052454" departSpeed="10.000000" color="1,0,0"/>
    <vehicle id="E43" type="typeCar" route="SW" depart="100.377960" departSpeed="10.000000" color="1,0,0"/>
    <vehicle id="E44" type="typeCar" route="NS" depart="102.166673" departSpeed="10.000000" color="1,0,0"/>
    <vehicle id="E45" type="typeCar" route="SN" depart="104.211813" departSpeed="10.000000" color="1,0,0"/>
    <vehicle id="E46" type="typeCar" route="WN" depart="106.485962" departSpeed="10.000000"/>
    <vehicle id="E47" type="typeCar" route="SE" depart="108.960492" departSpeed="10.000000" color="1,0,0"/>
    <vehicle id="E48" type="typeCar" route="ES" depart="110.753872" departSpeed="10.000000"/>
    <vehicle id="E49" type="typeCar" route="NW" depart="113.317018" departSpeed="10.000000" color="1,0,0"/>
    <vehicle id="F50" type="typeCar" route="ES" depart="116.299089" departSpeed="10.000000"/>
    <vehicle id="F51" type="typeCar" route="WN" depart="118.104886" departSpeed="10.000000"/>
    <vehicle id="F52" type="typeCar" route="EN" depart="120.887016" departSpeed="10.000000"/>
    <vehicle id="F53" type="typeCar" route="ES" depart="123.654275" departSpeed="10.000000"/>
    <vehicle id="F54" type="typeCar" route="EN" depart="125.677201" departSpeed="10.000000"/>
    <vehicle id="F55" type="typeCar" route="WE" depart="127.378546" departSpeed="10.000000"/>
    <vehicle id="F56" type="typeCar" route="SW" depart="129.334087" departSpeed="10.000000" color="1,0,0"/>
    <vehicle id="F57" type="typeCar" route="SN" depart="131.130874" departSpeed="10.000000" color="1,0,0"/>
    <vehicle id="F58" type="typeCar" route="NS" depart="132.753895" departSpeed="10.000000" color="1,0,0"/>
    <vehicle id="F59" type="typeCar" route="EN" depart="134.623727" departSpeed="10.000000"/>
    <vehicle id="G60" type="typeCar" route="SN" depart="137.374738" departSpeed="10.000000" color="1,0,0"/>
    <vehicle id="G61" type="typeCar" route="WS" depart="140.239232" departSpeed="10.000000"/>
    <vehicle id="G62" type="typeCar" route="NW" depart="142.883991" departSpeed="10.000000" color="1,0,0"/>
    <vehicle id="G63" type="typeCar" route="EW" depart="144.505817" departSpeed="10.000000"/>
    <vehicle id="G64" type="typeCar" route="ES" depart="146.289363" departSpeed="10.000000"/>
    <vehicle id="G65" type="typeCar" route="WN" depart="148.498407" departSpeed="10.000000"/>
    <vehicle id="G66" type="typeCar" route="EW" depart="151.009951" departSpeed="10.000000"/>
    <vehicle id="G67" type="typeCar" route="WE" depart="152.759144" departSpeed="10.000000"/>
    <vehicle id="G68" type="typeCar" route="EW" depart="154.889427" departSpeed="10.000000"/>
    <vehicle id="G69" type="typeCar" route="ES" depart="157.820699" departSpeed="10.000000"/>
    <vehicle id="H70" type="typeCar" route="ES" depart="160.237779" departSpeed="10.000000"/>
    <vehicle id="H71" type="typeCar" route="WS" depart="161.963134" departSpeed="10.000000"/>
    <vehicle id="H72" type="typeCar" route="WE" depart="163.942439" departSpeed="10.000000"/>
    <vehicle id="H73" type="typeCar" route="WE" depart="166.665514" departSpeed="10.000000"/>
    <vehicle id="H74" type="typeCar" route="EN" depart="169.373423" departSpeed="10.000000"/>
    <vehicle id="H75" type="typeCar" route="ES" depart="171.600802" departSpeed="10.000000"/>
    <vehicle id="H76" type="typeCar" route="SN" depart="173.725701" departSpeed="10.000000" color="1,0,0"/>
    <vehicle id="H77" type="typeCar" route="EW" depart="175.908135" departSpeed="10.000000"/>
    <vehicle id="H78" type="typeCar" route="NS" depart="177.639127" departSpeed="10.000000" color="1,0,0"/>
    <vehicle id="H79" type="typeCar" route="SE" depart="180.142447" departSpeed="10.000000" color="1,0,0"/>
    <vehicle id="I80" type="typeCar" route="NE" depart="181.935291" departSpeed="10.000000" color="1,0,0"/>
    <vehicle id="I81" type="typeCar" route="SW" depart="183.612700" departSpeed="10.000000" color="1,0,0"/>
    <vehicle id="I82" type="typeCar" route="ES" depart="185.371188" departSpeed="10.000000"/>
    <vehicle id="I83" type="typeCar" route="SN" depart="187.347188" departSpeed="10.000000" color="1,0,0"/>
    <vehicle id="I84" type="typeCar" route="EN" depart="189.067293" departSpeed="10.000000"/>
    <vehicle id="I85" type="typeCar" route="EN" depart="190.622103" departSpeed="10.000000"/>
    <vehicle id="I86" type="typeCar" route="SN" depart="192.772360" departSpeed="10.000000" color="1,0,0"/>
    <vehicle id="I87" type="typeCar" route="EN" depart="195.447772" departSpeed="10.000000"/>
    <vehicle id="I88" type="typeCar" route="NW" depart="198.415790" departSpeed="10.000000" color="1,0,0"/>
    <vehicle id="I89" type="typeCar" route="WS" depart="200.482073" departSpeed="10.000000"/>
    <vehicle id="J90" type="typeCar" route="SN" depart="202.582285" departSpeed="10.000000" color="1,0,0"/>
    <vehicle id="J91" type="typeCar" route="SE" depart="204.688149" departSpeed="10.000000" color="1,0,0"/>
    <vehicle id="J92" type="typeCar" route="EW" depart="207.541636" departSpeed="10.000000"/>
    <vehicle id="J93" type="typeCar" route="EN" depart="209.722554" departSpeed="10.000000"/>
    <vehicle id="J94" type="typeCar" route="SE" depart="211.818110" departSpeed="10.000000" color="1,0,0"/>
    <vehicle id="J95" type="typeCar" route="ES" depart="214.732808" departSpeed="10.000000"/>
    <vehicle id="J96" type="typeCar" route="WE" depart="216.788968" departSpeed="10.000000"/>
    <vehicle id="J97" type="typeCar" route="NE" depart="219.674814" departSpeed="10.000000" color="1,0,0"/>
    <vehicle id="J98" type="typeCar" route="SW" depart="221.344210" departSpeed="10.000000" color="1,0,0"/>
    <vehicle id="J99" type="typeCar" route="SE" depart="223.978864" departSpeed="10.000000" color="1,0,0"/>
</routes>
