<routes>
        <vType id="typeCar" accel="0.800000" decel="4.500000" sigma="0.0" length="5" minGap="2.5" speedDev="0" maxSpeed="8.000000" guiShape="passenger"/>


        <route id="WE" edges="wc ce" />
        <route id="WN" edges="wc cn" />
        <route id="WS" edges="wc cs" />

        <route id="EW" edges="ec cw" />
        <route id="EN" edges="ec cn" />
        <route id="ES" edges="ec cs" />

        <route id="NS" edges="nc cs" />
        <route id="NE" edges="nc ce" />
        <route id="NW" edges="nc cw" />

        <route id="SN" edges="sc cn" />
        <route id="SE" edges="sc ce" />
        <route id="SW" edges="sc cw" />

        
    <vehicle id="WE_0" type="typeCar" route="WE" depart="0" departSpeed="8.000000"/>
    <vehicle id="ES_1" type="typeCar" route="ES" depart="0" departSpeed="8.000000"/>
    <vehicle id="EW_2" type="typeCar" route="EW" depart="1" departSpeed="8.000000"/>
    <vehicle id="SN_3" type="typeCar" route="SN" depart="1" color="1,0,0" departSpeed="8.000000"/>
    <vehicle id="SN_4" type="typeCar" route="SN" depart="2" color="1,0,0" departSpeed="8.000000"/>
    <vehicle id="SE_5" type="typeCar" route="SE" depart="2" color="1,0,0" departSpeed="8.000000"/>
    <vehicle id="WN_6" type="typeCar" route="WN" depart="3" departSpeed="8.000000"/>
    <vehicle id="SN_7" type="typeCar" route="SN" depart="3" color="1,0,0" departSpeed="8.000000"/>
    <vehicle id="WE_8" type="typeCar" route="WE" depart="5" departSpeed="8.000000"/>
    <vehicle id="WN_9" type="typeCar" route="WN" depart="5" departSpeed="8.000000"/>
    <vehicle id="WN_10" type="typeCar" route="WN" depart="6" departSpeed="8.000000"/>
    <vehicle id="NS_11" type="typeCar" route="NS" depart="7" color="1,0,0" departSpeed="8.000000"/>
    <vehicle id="NE_12" type="typeCar" route="NE" depart="7" color="1,0,0" departSpeed="8.000000"/>
    <vehicle id="SN_13" type="typeCar" route="SN" depart="7" color="1,0,0" departSpeed="8.000000"/>
    <vehicle id="SN_14" type="typeCar" route="SN" depart="8" color="1,0,0" departSpeed="8.000000"/>
    <vehicle id="NE_15" type="typeCar" route="NE" depart="9" color="1,0,0" departSpeed="8.000000"/>
    <vehicle id="SN_16" type="typeCar" route="SN" depart="9" color="1,0,0" departSpeed="8.000000"/>
    <vehicle id="SW_17" type="typeCar" route="SW" depart="9" color="1,0,0" departSpeed="8.000000"/>
    <vehicle id="WE_18" type="typeCar" route="WE" depart="10" departSpeed="8.000000"/>
    <vehicle id="EW_19" type="typeCar" route="EW" depart="10" departSpeed="8.000000"/>
    <vehicle id="WN_20" type="typeCar" route="WN" depart="11" departSpeed="8.000000"/>
    <vehicle id="EN_21" type="typeCar" route="EN" depart="11" departSpeed="8.000000"/>
    <vehicle id="NS_22" type="typeCar" route="NS" depart="11" color="1,0,0" departSpeed="8.000000"/>
    <vehicle id="SE_23" type="typeCar" route="SE" depart="11" color="1,0,0" departSpeed="8.000000"/>
    <vehicle id="SN_24" type="typeCar" route="SN" depart="12" color="1,0,0" departSpeed="8.000000"/>
    <vehicle id="EN_25" type="typeCar" route="EN" depart="13" departSpeed="8.000000"/>
    <vehicle id="NS_26" type="typeCar" route="NS" depart="13" color="1,0,0" departSpeed="8.000000"/>
    <vehicle id="WN_27" type="typeCar" route="WN" depart="14" departSpeed="8.000000"/>
    <vehicle id="SW_28" type="typeCar" route="SW" depart="14" color="1,0,0" departSpeed="8.000000"/>
    <vehicle id="EW_29" type="typeCar" route="EW" depart="15" departSpeed="8.000000"/>
    <vehicle id="WN_30" type="typeCar" route="WN" depart="16" departSpeed="8.000000"/>
    <vehicle id="EN_31" type="typeCar" route="EN" depart="16" departSpeed="8.000000"/>
    <vehicle id="WE_32" type="typeCar" route="WE" depart="17" departSpeed="8.000000"/>
    <vehicle id="EW_33" type="typeCar" route="EW" depart="17" departSpeed="8.000000"/>
    <vehicle id="NS_34" type="typeCar" route="NS" depart="17" color="1,0,0" departSpeed="8.000000"/>
    <vehicle id="NE_35" type="typeCar" route="NE" depart="17" color="1,0,0" departSpeed="8.000000"/>
    <vehicle id="WS_36" type="typeCar" route="WS" depart="18" departSpeed="8.000000"/>
    <vehicle id="WE_37" type="typeCar" route="WE" depart="19" departSpeed="8.000000"/>
    <vehicle id="EW_38" type="typeCar" route="EW" depart="19" departSpeed="8.000000"/>
    <vehicle id="SE_39" type="typeCar" route="SE" depart="19" color="1,0,0" departSpeed="8.000000"/>
    <vehicle id="WE_40" type="typeCar" route="WE" depart="20" departSpeed="8.000000"/>
    <vehicle id="EW_41" type="typeCar" route="EW" depart="20" departSpeed="8.000000"/>
    <vehicle id="EN_42" type="typeCar" route="EN" depart="20" departSpeed="8.000000"/>
    <vehicle id="WE_43" type="typeCar" route="WE" depart="21" departSpeed="8.000000"/>
    <vehicle id="WS_44" type="typeCar" route="WS" depart="21" departSpeed="8.000000"/>
    <vehicle id="NS_45" type="typeCar" route="NS" depart="21" color="1,0,0" departSpeed="8.000000"/>
    <vehicle id="SN_46" type="typeCar" route="SN" depart="21" color="1,0,0" departSpeed="8.000000"/>
    <vehicle id="SW_47" type="typeCar" route="SW" depart="21" color="1,0,0" departSpeed="8.000000"/>
    <vehicle id="NS_48" type="typeCar" route="NS" depart="22" color="1,0,0" departSpeed="8.000000"/>
    <vehicle id="EW_49" type="typeCar" route="EW" depart="23" departSpeed="8.000000"/>
    <vehicle id="EW_50" type="typeCar" route="EW" depart="24" departSpeed="8.000000"/>
    <vehicle id="SN_51" type="typeCar" route="SN" depart="24" color="1,0,0" departSpeed="8.000000"/>
    <vehicle id="SN_52" type="typeCar" route="SN" depart="26" color="1,0,0" departSpeed="8.000000"/>
    <vehicle id="SE_53" type="typeCar" route="SE" depart="26" color="1,0,0" departSpeed="8.000000"/>
    <vehicle id="WE_54" type="typeCar" route="WE" depart="27" departSpeed="8.000000"/>
    <vehicle id="EW_55" type="typeCar" route="EW" depart="27" departSpeed="8.000000"/>
    <vehicle id="SN_56" type="typeCar" route="SN" depart="28" color="1,0,0" departSpeed="8.000000"/>
    <vehicle id="SE_57" type="typeCar" route="SE" depart="28" color="1,0,0" departSpeed="8.000000"/>
    <vehicle id="NW_58" type="typeCar" route="NW" depart="30" color="1,0,0" departSpeed="8.000000"/>
    <vehicle id="SE_59" type="typeCar" route="SE" depart="30" color="1,0,0" departSpeed="8.000000"/>
    <vehicle id="WE_60" type="typeCar" route="WE" depart="31" departSpeed="8.000000"/>
    <vehicle id="WS_61" type="typeCar" route="WS" depart="31" departSpeed="8.000000"/>
    <vehicle id="EW_62" type="typeCar" route="EW" depart="31" departSpeed="8.000000"/>
    <vehicle id="SN_63" type="typeCar" route="SN" depart="31" color="1,0,0" departSpeed="8.000000"/>
    <vehicle id="WE_64" type="typeCar" route="WE" depart="32" departSpeed="8.000000"/>
    <vehicle id="NE_65" type="typeCar" route="NE" depart="32" color="1,0,0" departSpeed="8.000000"/>
    <vehicle id="EN_66" type="typeCar" route="EN" depart="33" departSpeed="8.000000"/>
    <vehicle id="NW_67" type="typeCar" route="NW" depart="34" color="1,0,0" departSpeed="8.000000"/>
    <vehicle id="ES_68" type="typeCar" route="ES" depart="35" departSpeed="8.000000"/>
    <vehicle id="NS_69" type="typeCar" route="NS" depart="36" color="1,0,0" departSpeed="8.000000"/>
    <vehicle id="SN_70" type="typeCar" route="SN" depart="36" color="1,0,0" departSpeed="8.000000"/>
    <vehicle id="SE_71" type="typeCar" route="SE" depart="36" color="1,0,0" departSpeed="8.000000"/>
    <vehicle id="EN_72" type="typeCar" route="EN" depart="37" departSpeed="8.000000"/>
    <vehicle id="NE_73" type="typeCar" route="NE" depart="37" color="1,0,0" departSpeed="8.000000"/>
    <vehicle id="WS_74" type="typeCar" route="WS" depart="38" departSpeed="8.000000"/>
    <vehicle id="EW_75" type="typeCar" route="EW" depart="38" departSpeed="8.000000"/>
    <vehicle id="NW_76" type="typeCar" route="NW" depart="38" color="1,0,0" departSpeed="8.000000"/>
    <vehicle id="SW_77" type="typeCar" route="SW" depart="38" color="1,0,0" departSpeed="8.000000"/>
    <vehicle id="WE_78" type="typeCar" route="WE" depart="39" departSpeed="8.000000"/>
    <vehicle id="EW_79" type="typeCar" route="EW" depart="39" departSpeed="8.000000"/>
    <vehicle id="WE_80" type="typeCar" route="WE" depart="41" departSpeed="8.000000"/>
    <vehicle id="SN_81" type="typeCar" route="SN" depart="41" color="1,0,0" departSpeed="8.000000"/>
    <vehicle id="EW_82" type="typeCar" route="EW" depart="43" departSpeed="8.000000"/>
    <vehicle id="WE_83" type="typeCar" route="WE" depart="44" departSpeed="8.000000"/>
    <vehicle id="ES_84" type="typeCar" route="ES" depart="44" departSpeed="8.000000"/>
    <vehicle id="SE_85" type="typeCar" route="SE" depart="44" color="1,0,0" departSpeed="8.000000"/>
    <vehicle id="NS_86" type="typeCar" route="NS" depart="45" color="1,0,0" departSpeed="8.000000"/>
    <vehicle id="SN_87" type="typeCar" route="SN" depart="45" color="1,0,0" departSpeed="8.000000"/>
    <vehicle id="SE_88" type="typeCar" route="SE" depart="45" color="1,0,0" departSpeed="8.000000"/>
    <vehicle id="SN_89" type="typeCar" route="SN" depart="46" color="1,0,0" departSpeed="8.000000"/>
    <vehicle id="WE_90" type="typeCar" route="WE" depart="47" departSpeed="8.000000"/>
    <vehicle id="WS_91" type="typeCar" route="WS" depart="47" departSpeed="8.000000"/>
    <vehicle id="EN_92" type="typeCar" route="EN" depart="47" departSpeed="8.000000"/>
    <vehicle id="EW_93" type="typeCar" route="EW" depart="48" departSpeed="8.000000"/>
    <vehicle id="NS_94" type="typeCar" route="NS" depart="48" color="1,0,0" departSpeed="8.000000"/>
    <vehicle id="NE_95" type="typeCar" route="NE" depart="49" color="1,0,0" departSpeed="8.000000"/>
    <vehicle id="EW_96" type="typeCar" route="EW" depart="50" departSpeed="8.000000"/>
    <vehicle id="SN_97" type="typeCar" route="SN" depart="50" color="1,0,0" departSpeed="8.000000"/>
    <vehicle id="SN_98" type="typeCar" route="SN" depart="51" color="1,0,0" departSpeed="8.000000"/>
    <vehicle id="EW_99" type="typeCar" route="EW" depart="52" departSpeed="8.000000"/>
    <vehicle id="NS_100" type="typeCar" route="NS" depart="52" color="1,0,0" departSpeed="8.000000"/>
    <vehicle id="NW_101" type="typeCar" route="NW" depart="52" color="1,0,0" departSpeed="8.000000"/>
    <vehicle id="WS_102" type="typeCar" route="WS" depart="53" departSpeed="8.000000"/>
    <vehicle id="EW_103" type="typeCar" route="EW" depart="53" departSpeed="8.000000"/>
    <vehicle id="ES_104" type="typeCar" route="ES" depart="53" departSpeed="8.000000"/>
    <vehicle id="SE_105" type="typeCar" route="SE" depart="53" color="1,0,0" departSpeed="8.000000"/>
    <vehicle id="EW_106" type="typeCar" route="EW" depart="54" departSpeed="8.000000"/>
    <vehicle id="EN_107" type="typeCar" route="EN" depart="54" departSpeed="8.000000"/>
    <vehicle id="NS_108" type="typeCar" route="NS" depart="54" color="1,0,0" departSpeed="8.000000"/>
    <vehicle id="EN_109" type="typeCar" route="EN" depart="55" departSpeed="8.000000"/>
    <vehicle id="NW_110" type="typeCar" route="NW" depart="55" color="1,0,0" departSpeed="8.000000"/>
    <vehicle id="SN_111" type="typeCar" route="SN" depart="56" color="1,0,0" departSpeed="8.000000"/>
    <vehicle id="SW_112" type="typeCar" route="SW" depart="56" color="1,0,0" departSpeed="8.000000"/>
    <vehicle id="WN_113" type="typeCar" route="WN" depart="57" departSpeed="8.000000"/>
    <vehicle id="SW_114" type="typeCar" route="SW" depart="57" color="1,0,0" departSpeed="8.000000"/>
    <vehicle id="EW_115" type="typeCar" route="EW" depart="58" departSpeed="8.000000"/>
    <vehicle id="NW_116" type="typeCar" route="NW" depart="58" color="1,0,0" departSpeed="8.000000"/>
    <vehicle id="WE_117" type="typeCar" route="WE" depart="59" departSpeed="8.000000"/>
    <vehicle id="EN_118" type="typeCar" route="EN" depart="59" departSpeed="8.000000"/>
    <vehicle id="NS_119" type="typeCar" route="NS" depart="59" color="1,0,0" departSpeed="8.000000"/>
    <vehicle id="SW_120" type="typeCar" route="SW" depart="59" color="1,0,0" departSpeed="8.000000"/>
    <vehicle id="ES_121" type="typeCar" route="ES" depart="61" departSpeed="8.000000"/>
    <vehicle id="SN_122" type="typeCar" route="SN" depart="61" color="1,0,0" departSpeed="8.000000"/>
    <vehicle id="SE_123" type="typeCar" route="SE" depart="61" color="1,0,0" departSpeed="8.000000"/>
    <vehicle id="EN_124" type="typeCar" route="EN" depart="62" departSpeed="8.000000"/>
    <vehicle id="NS_125" type="typeCar" route="NS" depart="62" color="1,0,0" departSpeed="8.000000"/>
    <vehicle id="SN_126" type="typeCar" route="SN" depart="62" color="1,0,0" departSpeed="8.000000"/>
    <vehicle id="WS_127" type="typeCar" route="WS" depart="63" departSpeed="8.000000"/>
    <vehicle id="NE_128" type="typeCar" route="NE" depart="63" color="1,0,0" departSpeed="8.000000"/>
    <vehicle id="SE_129" type="typeCar" route="SE" depart="63" color="1,0,0" departSpeed="8.000000"/>
    <vehicle id="NW_130" type="typeCar" route="NW" depart="64" color="1,0,0" departSpeed="8.000000"/>
    <vehicle id="SN_131" type="typeCar" route="SN" depart="64" color="1,0,0" departSpeed="8.000000"/>
    <vehicle id="SE_132" type="typeCar" route="SE" depart="64" color="1,0,0" departSpeed="8.000000"/>
    <vehicle id="EW_133" type="typeCar" route="EW" depart="65" departSpeed="8.000000"/>
    <vehicle id="EW_134" type="typeCar" route="EW" depart="66" departSpeed="8.000000"/>
    <vehicle id="WN_135" type="typeCar" route="WN" depart="67" departSpeed="8.000000"/>
    <vehicle id="EW_136" type="typeCar" route="EW" depart="67" departSpeed="8.000000"/>
    <vehicle id="NS_137" type="typeCar" route="NS" depart="67" color="1,0,0" departSpeed="8.000000"/>
    <vehicle id="EN_138" type="typeCar" route="EN" depart="68" departSpeed="8.000000"/>
    <vehicle id="NS_139" type="typeCar" route="NS" depart="68" color="1,0,0" departSpeed="8.000000"/>
    <vehicle id="WE_140" type="typeCar" route="WE" depart="69" departSpeed="8.000000"/>
    <vehicle id="WS_141" type="typeCar" route="WS" depart="69" departSpeed="8.000000"/>
    <vehicle id="SN_142" type="typeCar" route="SN" depart="69" color="1,0,0" departSpeed="8.000000"/>
    <vehicle id="EN_143" type="typeCar" route="EN" depart="70" departSpeed="8.000000"/>
    <vehicle id="SN_144" type="typeCar" route="SN" depart="70" color="1,0,0" departSpeed="8.000000"/>
    <vehicle id="SE_145" type="typeCar" route="SE" depart="70" color="1,0,0" departSpeed="8.000000"/>
    <vehicle id="EN_146" type="typeCar" route="EN" depart="71" departSpeed="8.000000"/>
    <vehicle id="EW_147" type="typeCar" route="EW" depart="72" departSpeed="8.000000"/>
    <vehicle id="EN_148" type="typeCar" route="EN" depart="72" departSpeed="8.000000"/>
    <vehicle id="WN_149" type="typeCar" route="WN" depart="73" departSpeed="8.000000"/>
    <vehicle id="NW_150" type="typeCar" route="NW" depart="73" color="1,0,0" departSpeed="8.000000"/>
    <vehicle id="ES_151" type="typeCar" route="ES" depart="75" departSpeed="8.000000"/>
    <vehicle id="NW_152" type="typeCar" route="NW" depart="75" color="1,0,0" departSpeed="8.000000"/>
    <vehicle id="SN_153" type="typeCar" route="SN" depart="75" color="1,0,0" departSpeed="8.000000"/>
    <vehicle id="SE_154" type="typeCar" route="SE" depart="75" color="1,0,0" departSpeed="8.000000"/>
    <vehicle id="WE_155" type="typeCar" route="WE" depart="76" departSpeed="8.000000"/>
    <vehicle id="EW_156" type="typeCar" route="EW" depart="76" departSpeed="8.000000"/>
    <vehicle id="NE_157" type="typeCar" route="NE" depart="76" color="1,0,0" departSpeed="8.000000"/>
    <vehicle id="NS_158" type="typeCar" route="NS" depart="77" color="1,0,0" departSpeed="8.000000"/>
    <vehicle id="NE_159" type="typeCar" route="NE" depart="77" color="1,0,0" departSpeed="8.000000"/>
    <vehicle id="NW_160" type="typeCar" route="NW" depart="77" color="1,0,0" departSpeed="8.000000"/>
    <vehicle id="WN_161" type="typeCar" route="WN" depart="78" departSpeed="8.000000"/>
    <vehicle id="EW_162" type="typeCar" route="EW" depart="78" departSpeed="8.000000"/>
    <vehicle id="EN_163" type="typeCar" route="EN" depart="78" departSpeed="8.000000"/>
    <vehicle id="NE_164" type="typeCar" route="NE" depart="78" color="1,0,0" departSpeed="8.000000"/>
    <vehicle id="SN_165" type="typeCar" route="SN" depart="78" color="1,0,0" departSpeed="8.000000"/>
    <vehicle id="SE_166" type="typeCar" route="SE" depart="78" color="1,0,0" departSpeed="8.000000"/>
    <vehicle id="EW_167" type="typeCar" route="EW" depart="80" departSpeed="8.000000"/>
    <vehicle id="EN_168" type="typeCar" route="EN" depart="80" departSpeed="8.000000"/>
    <vehicle id="WE_169" type="typeCar" route="WE" depart="81" departSpeed="8.000000"/>
    <vehicle id="WN_170" type="typeCar" route="WN" depart="81" departSpeed="8.000000"/>
    <vehicle id="ES_171" type="typeCar" route="ES" depart="81" departSpeed="8.000000"/>
    <vehicle id="NW_172" type="typeCar" route="NW" depart="81" color="1,0,0" departSpeed="8.000000"/>
    <vehicle id="SN_173" type="typeCar" route="SN" depart="81" color="1,0,0" departSpeed="8.000000"/>
    <vehicle id="WE_174" type="typeCar" route="WE" depart="82" departSpeed="8.000000"/>
    <vehicle id="ES_175" type="typeCar" route="ES" depart="82" departSpeed="8.000000"/>
    <vehicle id="SN_176" type="typeCar" route="SN" depart="82" color="1,0,0" departSpeed="8.000000"/>
    <vehicle id="EW_177" type="typeCar" route="EW" depart="83" departSpeed="8.000000"/>
    <vehicle id="ES_178" type="typeCar" route="ES" depart="83" departSpeed="8.000000"/>
    <vehicle id="NS_179" type="typeCar" route="NS" depart="83" color="1,0,0" departSpeed="8.000000"/>
    <vehicle id="EW_180" type="typeCar" route="EW" depart="84" departSpeed="8.000000"/>
    <vehicle id="WN_181" type="typeCar" route="WN" depart="85" departSpeed="8.000000"/>
    <vehicle id="WS_182" type="typeCar" route="WS" depart="85" departSpeed="8.000000"/>
    <vehicle id="WS_183" type="typeCar" route="WS" depart="87" departSpeed="8.000000"/>
    <vehicle id="SN_184" type="typeCar" route="SN" depart="87" color="1,0,0" departSpeed="8.000000"/>
    <vehicle id="SE_185" type="typeCar" route="SE" depart="87" color="1,0,0" departSpeed="8.000000"/>
    <vehicle id="NE_186" type="typeCar" route="NE" depart="88" color="1,0,0" departSpeed="8.000000"/>
    <vehicle id="SW_187" type="typeCar" route="SW" depart="88" color="1,0,0" departSpeed="8.000000"/>
    <vehicle id="WE_188" type="typeCar" route="WE" depart="89" departSpeed="8.000000"/>
    <vehicle id="WS_189" type="typeCar" route="WS" depart="89" departSpeed="8.000000"/>
    <vehicle id="EN_190" type="typeCar" route="EN" depart="89" departSpeed="8.000000"/>
    <vehicle id="SE_191" type="typeCar" route="SE" depart="89" color="1,0,0" departSpeed="8.000000"/>
    <vehicle id="WE_192" type="typeCar" route="WE" depart="90" departSpeed="8.000000"/>
    <vehicle id="EN_193" type="typeCar" route="EN" depart="90" departSpeed="8.000000"/>
    <vehicle id="SW_194" type="typeCar" route="SW" depart="90" color="1,0,0" departSpeed="8.000000"/>
    <vehicle id="SN_195" type="typeCar" route="SN" depart="91" color="1,0,0" departSpeed="8.000000"/>
    <vehicle id="SW_196" type="typeCar" route="SW" depart="91" color="1,0,0" departSpeed="8.000000"/>
    <vehicle id="EW_197" type="typeCar" route="EW" depart="92" departSpeed="8.000000"/>
    <vehicle id="NS_198" type="typeCar" route="NS" depart="93" color="1,0,0" departSpeed="8.000000"/>
    <vehicle id="SE_199" type="typeCar" route="SE" depart="93" color="1,0,0" departSpeed="8.000000"/>
    <vehicle id="WE_200" type="typeCar" route="WE" depart="94" departSpeed="8.000000"/>
    <vehicle id="WS_201" type="typeCar" route="WS" depart="94" departSpeed="8.000000"/>
    <vehicle id="NE_202" type="typeCar" route="NE" depart="94" color="1,0,0" departSpeed="8.000000"/>
    <vehicle id="WN_203" type="typeCar" route="WN" depart="95" departSpeed="8.000000"/>
    <vehicle id="EW_204" type="typeCar" route="EW" depart="95" departSpeed="8.000000"/>
    <vehicle id="EN_205" type="typeCar" route="EN" depart="95" departSpeed="8.000000"/>
    <vehicle id="NS_206" type="typeCar" route="NS" depart="95" color="1,0,0" departSpeed="8.000000"/>
    <vehicle id="SE_207" type="typeCar" route="SE" depart="95" color="1,0,0" departSpeed="8.000000"/>
    <vehicle id="EW_208" type="typeCar" route="EW" depart="96" departSpeed="8.000000"/>
    <vehicle id="NS_209" type="typeCar" route="NS" depart="96" color="1,0,0" departSpeed="8.000000"/>
    <vehicle id="NE_210" type="typeCar" route="NE" depart="97" color="1,0,0" departSpeed="8.000000"/>
    <vehicle id="SN_211" type="typeCar" route="SN" depart="99" color="1,0,0" departSpeed="8.000000"/>
</routes>
