<routes>
        <vType id="typeCar" accel="0.800000" decel="4.500000" sigma="0.0" length="5" minGap="2.5" speedDev="0" maxSpeed="10.000000" guiShape="passenger"/>
        <route id="WE" edges="wc ce" />
        <route id="WN" edges="wc cn" />
        <route id="WS" edges="wc cs" />
        <route id="EW" edges="ec cw" />
        <route id="EN" edges="ec cn" />
        <route id="ES" edges="ec cs" />
        <route id="NS" edges="nc cs" />
        <route id="NE" edges="nc ce" />
        <route id="NW" edges="nc cw" />
        <route id="SN" edges="sc cn" />
        <route id="SE" edges="sc ce" />
        <route id="SW" edges="sc cw" />
        
    <vehicle id="A0" type="typeCar" route="NE" depart="0.000000" departSpeed="10.000000" color="1,0,0"/>
    <vehicle id="A1" type="typeCar" route="WE" depart="2.599741" departSpeed="10.000000"/>
    <vehicle id="A2" type="typeCar" route="NE" depart="4.846035" departSpeed="10.000000" color="1,0,0"/>
    <vehicle id="A3" type="typeCar" route="NS" depart="6.894896" departSpeed="10.000000" color="1,0,0"/>
    <vehicle id="A4" type="typeCar" route="SW" depart="8.856030" departSpeed="10.000000" color="1,0,0"/>
</routes>
