<routes>
        <vType id="typeCar" accel="0.800000" decel="4.500000" sigma="0.0" length="5" minGap="2.5" speedDev="0" maxSpeed="10.000000" guiShape="passenger"/>


        <route id="WE" edges="wc ce" />
        <route id="WN" edges="wc cn" />
        <route id="WS" edges="wc cs" />

        <route id="EW" edges="ec cw" />
        <route id="EN" edges="ec cn" />
        <route id="ES" edges="ec cs" />

        <route id="NS" edges="nc cs" />
        <route id="NE" edges="nc ce" />
        <route id="NW" edges="nc cw" />

        <route id="SN" edges="sc cn" />
        <route id="SE" edges="sc ce" />
        <route id="SW" edges="sc cw" />

        
    <vehicle id="A0" type="typeCar" route="WS" depart="0.000000" departSpeed="10.000000"/>
    <vehicle id="A1" type="typeCar" route="EW" depart="1.979496" departSpeed="10.000000"/>
    <vehicle id="A2" type="typeCar" route="SE" depart="4.695086" departSpeed="10.000000" color="1,0,0"/>
    <vehicle id="A3" type="typeCar" route="WN" depart="7.137398" departSpeed="10.000000"/>
    <vehicle id="A4" type="typeCar" route="NE" depart="9.801919" departSpeed="10.000000" color="1,0,0"/>
    <vehicle id="A5" type="typeCar" route="EW" depart="11.663028" departSpeed="10.000000"/>
    <vehicle id="A6" type="typeCar" route="ES" depart="14.429837" departSpeed="10.000000"/>
    <vehicle id="A7" type="typeCar" route="EN" depart="16.356824" departSpeed="10.000000"/>
    <vehicle id="A8" type="typeCar" route="ES" depart="18.598216" departSpeed="10.000000"/>
    <vehicle id="A9" type="typeCar" route="NS" depart="20.540307" departSpeed="10.000000" color="1,0,0"/>
    <vehicle id="B10" type="typeCar" route="WN" depart="22.484565" departSpeed="10.000000"/>
    <vehicle id="B11" type="typeCar" route="SN" depart="24.086957" departSpeed="10.000000" color="1,0,0"/>
    <vehicle id="B12" type="typeCar" route="SE" depart="25.986176" departSpeed="10.000000" color="1,0,0"/>
    <vehicle id="B13" type="typeCar" route="NE" depart="28.936093" departSpeed="10.000000" color="1,0,0"/>
    <vehicle id="B14" type="typeCar" route="EN" depart="31.909937" departSpeed="10.000000"/>
    <vehicle id="B15" type="typeCar" route="SE" depart="34.459899" departSpeed="10.000000" color="1,0,0"/>
    <vehicle id="B16" type="typeCar" route="SW" depart="37.049864" departSpeed="10.000000" color="1,0,0"/>
    <vehicle id="B17" type="typeCar" route="SN" depart="38.767090" departSpeed="10.000000" color="1,0,0"/>
    <vehicle id="B18" type="typeCar" route="EW" depart="41.415586" departSpeed="10.000000"/>
    <vehicle id="B19" type="typeCar" route="SE" depart="43.017379" departSpeed="10.000000" color="1,0,0"/>
    <vehicle id="C20" type="typeCar" route="EN" depart="45.259639" departSpeed="10.000000"/>
    <vehicle id="C21" type="typeCar" route="NW" depart="47.028114" departSpeed="10.000000" color="1,0,0"/>
    <vehicle id="C22" type="typeCar" route="NS" depart="48.877637" departSpeed="10.000000" color="1,0,0"/>
    <vehicle id="C23" type="typeCar" route="SN" depart="51.483319" departSpeed="10.000000" color="1,0,0"/>
    <vehicle id="C24" type="typeCar" route="SN" depart="53.133935" departSpeed="10.000000" color="1,0,0"/>
    <vehicle id="C25" type="typeCar" route="WE" depart="54.771943" departSpeed="10.000000"/>
    <vehicle id="C26" type="typeCar" route="ES" depart="57.323539" departSpeed="10.000000"/>
    <vehicle id="C27" type="typeCar" route="SN" depart="60.202070" departSpeed="10.000000" color="1,0,0"/>
    <vehicle id="C28" type="typeCar" route="NW" depart="62.293720" departSpeed="10.000000" color="1,0,0"/>
    <vehicle id="C29" type="typeCar" route="NW" depart="64.323874" departSpeed="10.000000" color="1,0,0"/>
    <vehicle id="D30" type="typeCar" route="SE" depart="65.959444" departSpeed="10.000000" color="1,0,0"/>
    <vehicle id="D31" type="typeCar" route="WN" depart="68.413951" departSpeed="10.000000"/>
    <vehicle id="D32" type="typeCar" route="WN" depart="70.327114" departSpeed="10.000000"/>
    <vehicle id="D33" type="typeCar" route="WE" depart="71.842594" departSpeed="10.000000"/>
    <vehicle id="D34" type="typeCar" route="WN" depart="74.724884" departSpeed="10.000000"/>
    <vehicle id="D35" type="typeCar" route="NE" depart="77.071845" departSpeed="10.000000" color="1,0,0"/>
    <vehicle id="D36" type="typeCar" route="SN" depart="78.663677" departSpeed="10.000000" color="1,0,0"/>
    <vehicle id="D37" type="typeCar" route="NS" depart="80.303847" departSpeed="10.000000" color="1,0,0"/>
    <vehicle id="D38" type="typeCar" route="WN" depart="83.198444" departSpeed="10.000000"/>
    <vehicle id="D39" type="typeCar" route="NW" depart="85.628905" departSpeed="10.000000" color="1,0,0"/>
    <vehicle id="E40" type="typeCar" route="SE" depart="88.119160" departSpeed="10.000000" color="1,0,0"/>
    <vehicle id="E41" type="typeCar" route="ES" depart="91.043714" departSpeed="10.000000"/>
    <vehicle id="E42" type="typeCar" route="SW" depart="93.566067" departSpeed="10.000000" color="1,0,0"/>
    <vehicle id="E43" type="typeCar" route="ES" depart="96.176616" departSpeed="10.000000"/>
    <vehicle id="E44" type="typeCar" route="NW" depart="98.648489" departSpeed="10.000000" color="1,0,0"/>
    <vehicle id="E45" type="typeCar" route="SE" depart="100.473775" departSpeed="10.000000" color="1,0,0"/>
    <vehicle id="E46" type="typeCar" route="SE" depart="103.180084" departSpeed="10.000000" color="1,0,0"/>
    <vehicle id="E47" type="typeCar" route="EN" depart="106.068354" departSpeed="10.000000"/>
    <vehicle id="E48" type="typeCar" route="NW" depart="109.026569" departSpeed="10.000000" color="1,0,0"/>
    <vehicle id="E49" type="typeCar" route="EN" depart="111.378153" departSpeed="10.000000"/>
    <vehicle id="F50" type="typeCar" route="WE" depart="114.282679" departSpeed="10.000000"/>
    <vehicle id="F51" type="typeCar" route="ES" depart="117.183067" departSpeed="10.000000"/>
    <vehicle id="F52" type="typeCar" route="WS" depart="120.029897" departSpeed="10.000000"/>
    <vehicle id="F53" type="typeCar" route="EW" depart="121.656366" departSpeed="10.000000"/>
    <vehicle id="F54" type="typeCar" route="NE" depart="124.565006" departSpeed="10.000000" color="1,0,0"/>
    <vehicle id="F55" type="typeCar" route="WE" depart="126.325634" departSpeed="10.000000"/>
    <vehicle id="F56" type="typeCar" route="WN" depart="129.092929" departSpeed="10.000000"/>
    <vehicle id="F57" type="typeCar" route="EN" depart="130.631130" departSpeed="10.000000"/>
    <vehicle id="F58" type="typeCar" route="WE" depart="132.869408" departSpeed="10.000000"/>
    <vehicle id="F59" type="typeCar" route="WE" depart="135.716735" departSpeed="10.000000"/>
    <vehicle id="G60" type="typeCar" route="EN" depart="138.447716" departSpeed="10.000000"/>
    <vehicle id="G61" type="typeCar" route="SN" depart="140.137184" departSpeed="10.000000" color="1,0,0"/>
    <vehicle id="G62" type="typeCar" route="NW" depart="142.512214" departSpeed="10.000000" color="1,0,0"/>
    <vehicle id="G63" type="typeCar" route="WN" depart="145.116863" departSpeed="10.000000"/>
    <vehicle id="G64" type="typeCar" route="ES" depart="147.335529" departSpeed="10.000000"/>
    <vehicle id="G65" type="typeCar" route="WS" depart="148.851209" departSpeed="10.000000"/>
    <vehicle id="G66" type="typeCar" route="NS" depart="150.921913" departSpeed="10.000000" color="1,0,0"/>
    <vehicle id="G67" type="typeCar" route="EN" depart="152.648771" departSpeed="10.000000"/>
    <vehicle id="G68" type="typeCar" route="ES" depart="155.373753" departSpeed="10.000000"/>
    <vehicle id="G69" type="typeCar" route="ES" depart="157.146598" departSpeed="10.000000"/>
    <vehicle id="H70" type="typeCar" route="SE" depart="158.927592" departSpeed="10.000000" color="1,0,0"/>
    <vehicle id="H71" type="typeCar" route="SW" depart="161.643264" departSpeed="10.000000" color="1,0,0"/>
    <vehicle id="H72" type="typeCar" route="NS" depart="163.502951" departSpeed="10.000000" color="1,0,0"/>
    <vehicle id="H73" type="typeCar" route="WS" depart="165.391218" departSpeed="10.000000"/>
    <vehicle id="H74" type="typeCar" route="SW" depart="167.454246" departSpeed="10.000000" color="1,0,0"/>
    <vehicle id="H75" type="typeCar" route="SW" depart="170.020510" departSpeed="10.000000" color="1,0,0"/>
    <vehicle id="H76" type="typeCar" route="WN" depart="172.146857" departSpeed="10.000000"/>
    <vehicle id="H77" type="typeCar" route="NE" depart="174.002137" departSpeed="10.000000" color="1,0,0"/>
    <vehicle id="H78" type="typeCar" route="SE" depart="176.012439" departSpeed="10.000000" color="1,0,0"/>
    <vehicle id="H79" type="typeCar" route="SN" depart="177.567650" departSpeed="10.000000" color="1,0,0"/>
    <vehicle id="I80" type="typeCar" route="WS" depart="179.306949" departSpeed="10.000000"/>
    <vehicle id="I81" type="typeCar" route="ES" depart="181.738916" departSpeed="10.000000"/>
    <vehicle id="I82" type="typeCar" route="NS" depart="183.274249" departSpeed="10.000000" color="1,0,0"/>
    <vehicle id="I83" type="typeCar" route="NS" depart="185.488374" departSpeed="10.000000" color="1,0,0"/>
    <vehicle id="I84" type="typeCar" route="NS" depart="188.014589" departSpeed="10.000000" color="1,0,0"/>
    <vehicle id="I85" type="typeCar" route="EW" depart="190.224221" departSpeed="10.000000"/>
    <vehicle id="I86" type="typeCar" route="NE" depart="191.932840" departSpeed="10.000000" color="1,0,0"/>
    <vehicle id="I87" type="typeCar" route="WE" depart="194.713314" departSpeed="10.000000"/>
    <vehicle id="I88" type="typeCar" route="WE" depart="196.870832" departSpeed="10.000000"/>
    <vehicle id="I89" type="typeCar" route="EW" depart="199.302481" departSpeed="10.000000"/>
    <vehicle id="J90" type="typeCar" route="NS" depart="201.985411" departSpeed="10.000000" color="1,0,0"/>
    <vehicle id="J91" type="typeCar" route="NE" depart="204.678713" departSpeed="10.000000" color="1,0,0"/>
    <vehicle id="J92" type="typeCar" route="SE" depart="206.342548" departSpeed="10.000000" color="1,0,0"/>
    <vehicle id="J93" type="typeCar" route="WN" depart="208.443967" departSpeed="10.000000"/>
    <vehicle id="J94" type="typeCar" route="WS" depart="210.856353" departSpeed="10.000000"/>
    <vehicle id="J95" type="typeCar" route="ES" depart="212.392167" departSpeed="10.000000"/>
    <vehicle id="J96" type="typeCar" route="EW" depart="215.079137" departSpeed="10.000000"/>
    <vehicle id="J97" type="typeCar" route="ES" depart="216.818763" departSpeed="10.000000"/>
    <vehicle id="J98" type="typeCar" route="WS" depart="219.417961" departSpeed="10.000000"/>
    <vehicle id="J99" type="typeCar" route="SE" depart="222.136940" departSpeed="10.000000" color="1,0,0"/>
</routes>
